CM Simpole dipole antenna in free space
CE 
GW     1     9  0.00000E+00 -2.41800E-01  0.00000E+00  0.00000E+00  2.41800E-01  0.00000E+00  1.00000E-04
GS     0     0  1.00000E+00  0.00000E+00  0.00000E+00  0.00000E+00  0.00000E+00  0.00000E+00  0.00000E+00
GE     0     0  0.00000E+00  0.00000E+00  0.00000E+00  0.00000E+00  0.00000E+00  0.00000E+00  0.00000E+00
EX     0     1     5      0  1.00000E+00  0.00000E+00  0.00000E+00  0.00000E+00  0.00000E+00  0.00000E+00
FR     0     1     0      0  3.00000E+02  1.00000E+00  0.00000E+00  0.00000E+00  0.00000E+00  0.00000E+00
XQ     0     0     0      0  0.00000E+00  0.00000E+00  0.00000E+00  0.00000E+00  0.00000E+00  0.00000E+00
EN     0     0     0      0  0.00000E+00  0.00000E+00  0.00000E+00  0.00000E+00  0.00000E+00  0.00000E+00
