CM  12 ELEMENT LOG PERIODIC ANTENNA IN FREE SPACE.
CM    78 SEGMENTS.     SIGMA=D/L       RECEIVING AND TRANS. PATTERNS.
CE End Comments
GW     1     5  0.00000E+00 -1.67500E-01  0.00000E+00  0.00000E+00  1.67500E-01  0.00000E+00  7.00000E-03
GW     2     5 -1.00500E-01 -2.01000E-01  0.00000E+00 -1.00500E-01  2.01000E-01  0.00000E+00  7.00000E-03
GW     3     5 -2.21100E-01 -2.41000E-01  0.00000E+00 -2.21100E-01  2.41000E-01  0.00000E+00  8.00000E-03
GW     4     5 -3.65800E-01 -2.89500E-01  0.00000E+00 -3.65800E-01  2.89500E-01  0.00000E+00  8.00000E-03
GW     5     5 -5.39400E-01 -3.47000E-01  0.00000E+00 -5.39400E-01  3.47000E-01  0.00000E+00  9.00000E-03
GW     6     7 -7.47400E-01 -4.16500E-01  0.00000E+00 -7.47400E-01  4.16500E-01  0.00000E+00  1.00000E-02
GW     7     7 -9.97400E-01 -5.00000E-01  0.00000E+00 -9.97400E-01  5.00000E-01  0.00000E+00  1.00000E-02
GW     8     7 -1.29740E+00 -6.00000E-01  0.00000E+00 -1.29740E+00  6.00000E-01  0.00000E+00  1.10000E-02
GW     9     7 -1.65740E+00 -7.20000E-01  0.00000E+00 -1.65740E+00  7.20000E-01  0.00000E+00  1.20000E-02
GW    10     7 -2.08940E+00 -8.64000E-01  0.00000E+00 -2.08940E+00  8.64000E-01  0.00000E+00  1.30000E-02
GW    11     9 -2.60740E+00 -1.03500E+00  0.00000E+00 -2.60740E+00  1.03500E+00  0.00000E+00  1.40000E-02
GW    12     9 -3.22940E+00 -1.24500E+00  0.00000E+00 -3.22940E+00  1.24500E+00  0.00000E+00  1.50000E-02
GM    12     1  0.00000E+00  3.00000E+01  0.00000E+00  0.00000E+00  0.00000E+00  0.00000E+00  0.00000E+00
GE     0     0  0.00000E+00  0.00000E+00  0.00000E+00  0.00000E+00  0.00000E+00  0.00000E+00  0.00000E+00
FR     0     0     0      0  1.50000E+02  0.00000E+00  0.00000E+00  0.00000E+00  0.00000E+00  0.00000E+00
LD     5     0     0      0  3.70000E+07  0.00000E+00  0.00000E+00  0.00000E+00  0.00000E+00  0.00000E+00
TL     1     3     2      3 -5.00000E+01  0.00000E+00  0.00000E+00  0.00000E+00  0.00000E+00  0.00000E+00
TL     2     3     3      3 -5.00000E+01  0.00000E+00  0.00000E+00  0.00000E+00  0.00000E+00  0.00000E+00
TL     3     3     4      3 -5.00000E+01  0.00000E+00  0.00000E+00  0.00000E+00  0.00000E+00  0.00000E+00
TL     4     3     5      3 -5.00000E+01  0.00000E+00  0.00000E+00  0.00000E+00  0.00000E+00  0.00000E+00
TL     5     3     6      4 -5.00000E+01  0.00000E+00  0.00000E+00  0.00000E+00  0.00000E+00  0.00000E+00
TL     6     4     7      4 -5.00000E+01  0.00000E+00  0.00000E+00  0.00000E+00  0.00000E+00  0.00000E+00
TL     7     4     8      4 -5.00000E+01  0.00000E+00  0.00000E+00  0.00000E+00  0.00000E+00  0.00000E+00
TL     8     4     9      4 -5.00000E+01  0.00000E+00  0.00000E+00  0.00000E+00  0.00000E+00  0.00000E+00
TL     9     4    10      4 -5.00000E+01  0.00000E+00  0.00000E+00  0.00000E+00  0.00000E+00  0.00000E+00
TL    10     4    11      5 -5.00000E+01  0.00000E+00  0.00000E+00  0.00000E+00  0.00000E+00  0.00000E+00
TL    11     5    12      5 -5.00000E+01  0.00000E+00  0.00000E+00  0.00000E+00  2.00000E-02  0.00000E+00
EX     0     1     3      0  1.00000E+00  0.00000E+00  0.00000E+00  0.00000E+00  0.00000E+00  0.00000E+00
EX     0    13     3      0  1.00000E+00  0.00000E+00  0.00000E+00  0.00000E+00  0.00000E+00  0.00000E+00
RP     0     37    1  1000 -1.50000E+01  0.00000E+00  5.00000E+00  5.00000E+00  0.00000E+00  0.00000E+00
EN     0     0     0      0  0.00000E+00  0.00000E+00  0.00000E+00  0.00000E+00  0.00000E+00  0.00000E+00
