CM Simpole dipole antenna in free space
CE 
GW     1    21  0.00000E+00 -2.22456E-01  0.00000E+00  0.00000E+00  2.22456E-01  0.00000E+00  3.70760E-03
GS     0     0  1.00000E+00  0.00000E+00  0.00000E+00  0.00000E+00  0.00000E+00  0.00000E+00  0.00000E+00
GE     0     0  0.00000E+00  0.00000E+00  0.00000E+00  0.00000E+00  0.00000E+00  0.00000E+00  0.00000E+00
EX     0     1    10      0  1.00000E+00  0.00000E+00  0.00000E+00  0.00000E+00  0.00000E+00  0.00000E+00
FR     0     13    0      0  2.10000E+02  1.50000E+01  0.00000E+00  0.00000E+00  0.00000E+00  0.00000E+00
XQ     0     0     0      0  0.00000E+00  0.00000E+00  0.00000E+00  0.00000E+00  0.00000E+00  0.00000E+00
EN     0     0     0      0  0.00000E+00  0.00000E+00  0.00000E+00  0.00000E+00  0.00000E+00  0.00000E+00
