CM P9-6 Dipole antenna
CM L = lamda/10
CM A = lamda/10000
CM N = 3 sections
CE 
GW     1     3  0.00000E+00 -5.00000E-02  0.00000E+00  0.00000E+00  5.00000E-02  0.00000E+00  1.00000E-04
GE     0     0  0.00000E+00  0.00000E+00  0.00000E+00  0.00000E+00  0.00000E+00  0.00000E+00  0.00000E+00
EX     0     1     2      0  1.00000E+00  0.00000E+00  0.00000E+00  0.00000E+00  0.00000E+00  0.00000E+00
XQ     0     0     0      0  0.00000E+00  0.00000E+00  0.00000E+00  0.00000E+00  0.00000E+00  0.00000E+00
EN     0     0     0      0  0.00000E+00  0.00000E+00  0.00000E+00  0.00000E+00  0.00000E+00  0.00000E+00
